Version 4
SHEET 1 880 680
WIRE -192 160 -240 160
WIRE -80 160 -112 160
WIRE 80 160 -80 160
WIRE 240 160 160 160
WIRE -240 176 -240 160
WIRE 240 256 240 160
WIRE 240 352 240 336
WIRE 320 352 240 352
WIRE 400 352 400 336
WIRE 400 352 320 352
WIRE 528 352 400 352
WIRE 320 368 320 352
WIRE 400 368 400 352
FLAG 320 432 0
FLAG 400 432 0
FLAG -80 224 0
FLAG 528 352 Vout
FLAG 400 256 VDD
FLAG 656 96 VDD
FLAG 656 176 0
FLAG -240 256 0
SYMBOL res 176 144 R90
WINDOW 0 0 56 VBottom 2
WINDOW 3 32 56 VTop 2
SYMATTR InstName R1
SYMATTR Value 1k
SYMBOL cap -96 160 R0
SYMATTR InstName C1
SYMATTR Value 10n
SYMBOL res 224 240 R0
SYMATTR InstName R2
SYMATTR Value 4.7k
SYMBOL cap 304 368 R0
SYMATTR InstName C3
SYMATTR Value 10n
SYMBOL cap 384 368 R0
SYMATTR InstName C4
SYMATTR Value 310p
SYMBOL res 384 240 R0
SYMATTR InstName R3
SYMATTR Value 68k
SYMBOL voltage 656 80 R0
WINDOW 123 0 0 Left 0
WINDOW 39 0 0 Left 0
SYMATTR InstName V1
SYMATTR Value 3.3
SYMBOL voltage -240 160 R0
WINDOW 3 -373 164 Left 2
WINDOW 123 0 0 Left 0
WINDOW 39 0 0 Left 0
SYMATTR InstName V2
SYMATTR Value PULSE(3.3 0 2m 100n 100n 10m 100m 1)
SYMBOL res -96 144 R90
WINDOW 0 0 56 VBottom 2
WINDOW 3 32 56 VTop 2
SYMATTR InstName R4
SYMATTR Value 1k
TEXT -90 536 Left 2 !.tran 10m
